Hello Java Juniors!
Have a nice day!
6 minutes to lunch.
new line.
another new line.
send to remote
